# HOB package for  MODFLOW-2005, generated by Flopy.
       132         0         0        42    -1e+06
         1
p1012_1                 2         48         64          7                  1.0    -0.2560     0.3160  2202.1741   # DATASET 3 - Observation 1
p1039_1                 2         75         46          7                  1.0     0.4260    -0.0720  2247.9500   # DATASET 3 - Observation 2
p1078_1                 2         64         60          7                  1.0    -0.0420     0.4540  2200.9851   # DATASET 3 - Observation 3
p1262_1                 2         72         62          7                  1.0    -0.0200    -0.1040  2202.3569   # DATASET 3 - Observation 4
p1327_1                 2         63         51          7                  1.0     0.3000    -0.4400  2194.2781   # DATASET 3 - Observation 5
p1473_1                 2         48         46          7                  1.0     0.0600    -0.0940  2179.4319   # DATASET 3 - Observation 6
p1479_1                 2         44         70          7                  1.0    -0.4740     0.2820  2217.1411   # DATASET 3 - Observation 7
p1497_1                 2         51         53          7                  1.0     0.2960    -0.0360  2192.4209   # DATASET 3 - Observation 8
p160_1                  2         53         62          7                  1.0     0.2500     0.3180  2229.4570   # DATASET 3 - Observation 9
p1619_1                 2         47         53          7                  1.0     0.0120     0.4180  2162.0210   # DATASET 3 - Observation 10
p1646_1                 2         50         61          7                  1.0    -0.3680     0.1480  2196.6440   # DATASET 3 - Observation 11
p165_1                  2         56         61          7                  1.0    -0.2500     0.3860  2211.0259   # DATASET 3 - Observation 12
p1721_1                 2         50         65          7                  1.0    -0.0220    -0.1240  2207.6411   # DATASET 3 - Observation 13
p1727_1                 2         40         56          7                  1.0    -0.3240     0.0100  2187.5291   # DATASET 3 - Observation 14
p1757_1                 2         61         62          7                  1.0     0.0840     0.2120  2200.5830   # DATASET 3 - Observation 15
p1857_1                 2         69         57          7                  1.0     0.0320     0.1800  2201.8601   # DATASET 3 - Observation 16
p1875_1                 2         43         58          7                  1.0     0.2820     0.1500  2195.5801   # DATASET 3 - Observation 17
p1882_1                 2         44         69          7                  1.0     0.3040    -0.2980  2202.3311   # DATASET 3 - Observation 18
p1903_1                 2         55         63          7                  1.0    -0.3400     0.0900  2202.5591   # DATASET 3 - Observation 19
p1911_1                 2         55         61          7                  1.0    -0.3140     0.4400  2195.6289   # DATASET 3 - Observation 20
p1916_1                 2         46         59          7                  1.0    -0.2660    -0.2840  2192.9009   # DATASET 3 - Observation 21
p1963_1                 2         60         52          7                  1.0     0.2320     0.2000  2209.2019   # DATASET 3 - Observation 22
p1969_1                 2         50         58          7                  1.0    -0.3840    -0.3940  2194.9431   # DATASET 3 - Observation 23
p1971_1                 2         51         48          7                  1.0    -0.1220     0.1500  2183.8630   # DATASET 3 - Observation 24
p1978_1                 2         52         65          7                  1.0     0.1320     0.3800  2192.1521   # DATASET 3 - Observation 25
p1981_1                 2         47         59          7                  1.0     0.0380     0.2860  2194.2749   # DATASET 3 - Observation 26
p2025_1                 2         73         48          7                  1.0    -0.1060    -0.2980  2226.8579   # DATASET 3 - Observation 27
p2038_1                 2         51         62          7                  1.0     0.0420    -0.1080  2191.7910   # DATASET 3 - Observation 28
p2075_1                 2         69         60          7                  1.0     0.0140    -0.1620  2200.4080   # DATASET 3 - Observation 29
p2106_1                 2         61         68          7                  1.0    -0.2860    -0.3740  2199.8521   # DATASET 3 - Observation 30
p2161_1                 2         70         61          7                  1.0     0.2960     0.0240  2199.3091   # DATASET 3 - Observation 31
p2212_1                 2         47         59          7                  1.0    -0.0320    -0.4960  2199.4741   # DATASET 3 - Observation 32
p2213_1                 2         85         55          7                  1.0    -0.4900    -0.1580  2186.0620   # DATASET 3 - Observation 33
p2232_1                 2         73         51          7                  1.0     0.2080     0.3180  2219.9929   # DATASET 3 - Observation 34
p2233_1                 2         50         47          7                  1.0    -0.4300    -0.0660  2191.4629   # DATASET 3 - Observation 35
p2259_1                 2         68         61          7                  1.0    -0.1000     0.3100  2200.3049   # DATASET 3 - Observation 36
p2263_1                 2         52         60          7                  1.0    -0.3500    -0.0520  2198.7981   # DATASET 3 - Observation 37
p2303_1                 2         50         47          7                  1.0    -0.4300    -0.0660  2192.4700   # DATASET 3 - Observation 38
p2305_1                 2         68         61          7                  1.0    -0.1000     0.3100  2205.9260   # DATASET 3 - Observation 39
p2324_1                 2         52         60          7                  1.0    -0.3500    -0.0520  2212.8140   # DATASET 3 - Observation 40
p2329_1                 2         68         66          7                  1.0    -0.2400     0.1740  2198.4160   # DATASET 3 - Observation 41
p2349_1                 2         55         56          7                  1.0    -0.1000     0.4080  2200.1201   # DATASET 3 - Observation 42
p2360_1                 2         59         54          7                  1.0     0.4340     0.4360  2202.0400   # DATASET 3 - Observation 43
p2367_1                 2         49         65          7                  1.0     0.0200    -0.2040  2204.7151   # DATASET 3 - Observation 44
p2372_1                 2         52         50          7                  1.0    -0.3780     0.0920  2192.8740   # DATASET 3 - Observation 45
p2380_1                 2         53         68          7                  1.0     0.3480     0.4660  2210.2271   # DATASET 3 - Observation 46
p2394_1                 2         62         56          7                  1.0    -0.2240    -0.1780  2203.3391   # DATASET 3 - Observation 47
p2396_1                 2         48         61          7                  1.0    -0.2520     0.0620  2203.5171   # DATASET 3 - Observation 48
p2433_1                 2         86         61          7                  1.0    -0.3320     0.2760  2208.8831   # DATASET 3 - Observation 49
p2434_1                 2         87         60          7                  1.0    -0.4120    -0.3560  2199.3130   # DATASET 3 - Observation 50
p2435_1                 2         88         58          7                  1.0    -0.3500    -0.0360  2206.6790   # DATASET 3 - Observation 51
p2514_1                 2         81         61          7                  1.0     0.0120     0.1240  2196.1660   # DATASET 3 - Observation 52
p2523_1                 2         63         34          7                  1.0     0.0180     0.2860  2231.4741   # DATASET 3 - Observation 53
p2544_1                 2         71         45          7                  1.0    -0.0540     0.3040  2223.7971   # DATASET 3 - Observation 54
p2580_1                 2         83         67          7                  1.0    -0.2500     0.2260  2198.4519   # DATASET 3 - Observation 55
p2624_1                 2         52         72          7                  1.0     0.0760     0.4400  2213.5081   # DATASET 3 - Observation 56
p2632_1                 2         41         46          7                  1.0    -0.1260     0.2960  2182.2810   # DATASET 3 - Observation 57
p2637_1                 2         77         75          7                  1.0     0.4660    -0.4700  2198.7739   # DATASET 3 - Observation 58
p267_1                  2         81         56          7                  1.0     0.4720     0.4640  2200.3831   # DATASET 3 - Observation 59
p2679_1                 2         60         67          7                  1.0    -0.4300     0.2180  2202.4900   # DATASET 3 - Observation 60
p2680_1                 2         42         60          7                  1.0     0.1080     0.2700  2192.2310   # DATASET 3 - Observation 61
p2681_1                 2         60         67          7                  1.0    -0.4300     0.2180  2200.1650   # DATASET 3 - Observation 62
p269_1                  2         48         58          7                  1.0    -0.2280    -0.1820  2187.4470   # DATASET 3 - Observation 63
p287_1                  2         88         57          7                  1.0    -0.1920    -0.2720  2186.2849   # DATASET 3 - Observation 64
p416_1                  2         88         57          7                  1.0    -0.1920    -0.2720  2203.1179   # DATASET 3 - Observation 65
p480_1                  2         88         57          7                  1.0    -0.1920    -0.2720  2207.1750   # DATASET 3 - Observation 66
p531_1                  2         45         65          7                  1.0    -0.4500     0.3800  2202.9460   # DATASET 3 - Observation 67
p689_1                  2         56         59          7                  1.0     0.2820    -0.3820  2188.7791   # DATASET 3 - Observation 68
p816_1                  2         86         61          7                  1.0    -0.2520    -0.0560  2201.4771   # DATASET 3 - Observation 69
p857_1                  2         66         54          7                  1.0     0.2720     0.1440  2204.8650   # DATASET 3 - Observation 70
p942_1                  2         60         72          7                  1.0     0.1040    -0.4520  2200.6799   # DATASET 3 - Observation 71
s188_1                  2         46         56          7                  1.0     0.3840    -0.2000  2194.8931   # DATASET 3 - Observation 72
sN_1_1                  2         89         64          7                  1.0    -0.0640    -0.3760  2197.8330   # DATASET 3 - Observation 73
sPer_18_1               2         80         70          7                  1.0    -0.1860     0.1080  2197.3330   # DATASET 3 - Observation 74
sS_9_1                  2         89         63          7                  1.0    -0.1060    -0.4480  2178.1160   # DATASET 3 - Observation 75
sSC_2_1                 2         83         91          7                  1.0    -0.1900    -0.3300  2219.0300   # DATASET 3 - Observation 76
sSC_3_1                 2         83         89          7                  1.0    -0.2540     0.4760  2205.1011   # DATASET 3 - Observation 77
sSC_6_1                 2         81         82          7                  1.0     0.2660    -0.1100  2219.3350   # DATASET 3 - Observation 78
sSL_15_1                2         93         77          7                  1.0    -0.3040     0.1620  2221.4910   # DATASET 3 - Observation 79
sSL_16_1                2         94         76          7                  1.0     0.1480    -0.0920  2160.3730   # DATASET 3 - Observation 80
sSL_2_1                 2         92         86          7                  1.0     0.3800     0.0660  2219.9150   # DATASET 3 - Observation 81
sTec_10_1               2        101         93          7                  1.0     0.1820     0.4520  2217.4380   # DATASET 3 - Observation 82
t110_B_1                2         36        124          7                  1.0    -0.4960    -0.1620  2220.4500   # DATASET 3 - Observation 83
t119_B_1                2         78        103          7                  1.0     0.1740     0.2140  2220.8501   # DATASET 3 - Observation 84
t1528_V_1               2        102        107          7                  1.0    -0.4160    -0.1120  2221.1101   # DATASET 3 - Observation 85
t1541_1                 2         93        113          7                  1.0     0.4760    -0.2040  2230.6799   # DATASET 3 - Observation 86
t1549V_1                2         96        120          7                  1.0    -0.3280     0.3620  2226.4199   # DATASET 3 - Observation 87
t1609_1                 2         81        107          7                  1.0     0.0680     0.1120  2218.9700   # DATASET 3 - Observation 88
t1691_1                 2         77        116          7                  1.0    -0.4880     0.4460  2208.4600   # DATASET 3 - Observation 89
t1767_1                 2         84        113          7                  1.0    -0.3140     0.3780  2217.4399   # DATASET 3 - Observation 90
t1934V_1                2        104        118          7                  1.0     0.1180     0.0580  2225.0400   # DATASET 3 - Observation 91
t1944_1                 2         97        128          7                  1.0    -0.3140     0.1960  2233.5300   # DATASET 3 - Observation 92
t196A_1                 2         92        117          7                  1.0    -0.1000    -0.0020  2217.0100   # DATASET 3 - Observation 93
t2146_1                 2        102         97          7                  1.0     0.3180    -0.1420  2255.6299   # DATASET 3 - Observation 94
t2147_1                 2        103         94          7                  1.0     0.0260     0.0540  2243.5000   # DATASET 3 - Observation 95
t2235_1                 2        100         92          7                  1.0     0.2080     0.3760  2223.2000   # DATASET 3 - Observation 96
t245_1                  2         90        126          7                  1.0    -0.1940    -0.2960  2223.8501   # DATASET 3 - Observation 97
t45_AV_1                2         36        122          7                  1.0    -0.0220    -0.2440  2224.2300   # DATASET 3 - Observation 98
t46_A_1                 2         36        123          7                  1.0     0.3940    -0.4340  2223.4399   # DATASET 3 - Observation 99
t553_1                  2         98        130          7                  1.0     0.4020    -0.2100  2281.1001   # DATASET 3 - Observation 100
t58_A_1                 2         33        113          7                  1.0     0.0720    -0.0380  2213.8401   # DATASET 3 - Observation 101
t611_1                  2         89        113          7                  1.0    -0.2340     0.2000  2219.7900   # DATASET 3 - Observation 102
t79_B_1                 2         96        110          7                  1.0     0.0720    -0.4040  2248.4199   # DATASET 3 - Observation 103
t82_B_1                 2        104         99          7                  1.0    -0.2480    -0.0240  2216.7400   # DATASET 3 - Observation 104
t83_B_1                 2         81         97          7                  1.0     0.1900     0.1300  2225.2200   # DATASET 3 - Observation 105
t94_B_1                 2        104        113          7                  1.0    -0.0740     0.2820  2224.2400   # DATASET 3 - Observation 106
t98_B_1                 2         59        103          7                  1.0    -0.3140     0.4780  2206.2200   # DATASET 3 - Observation 107
t99_B_1                 2        100        124          7                  1.0    -0.1140     0.1780  2224.3899   # DATASET 3 - Observation 108
tB_155_1                2         27        104          7                  1.0    -0.4520     0.3760  2227.5100   # DATASET 3 - Observation 109
tB_273_1                2         17        106          7                  1.0    -0.3480     0.1600  2219.2500   # DATASET 3 - Observation 110
tB_426_1                2        103        133          7                  1.0     0.4620    -0.3140  2251.5100   # DATASET 3 - Observation 111
tB_502_1                2        108        117          7                  1.0     0.3040     0.4760  2221.7800   # DATASET 3 - Observation 112
tB_693_1                2         88        104          7                  1.0     0.3700     0.0600  2220.3000   # DATASET 3 - Observation 113
tBO_37V_1               2         41        122          7                  1.0    -0.2400     0.2200  2226.3601   # DATASET 3 - Observation 114
tC_771_1                2         56         97          7                  1.0    -0.0840     0.2620  2218.9600   # DATASET 3 - Observation 115
tD_658_1                2         73        120          7                  1.0     0.0080    -0.0020  2206.1699   # DATASET 3 - Observation 116
tD_675_1                2         77        120          7                  1.0    -0.4420     0.1400  2218.2100   # DATASET 3 - Observation 117
tDO_35_1                2         27        131          7                  1.0     0.2920    -0.1820  2287.5000   # DATASET 3 - Observation 118
tE_133_1                2         38        128          7                  1.0     0.3220     0.4580  2303.3101   # DATASET 3 - Observation 119
tE_708_1                2         29        119          7                  1.0    -0.3380     0.4060  2225.3101   # DATASET 3 - Observation 120
tE_866_1                2         25        113          7                  1.0     0.4140     0.2840  2218.8101   # DATASET 3 - Observation 121
tEA_47_1                2         19        102          7                  1.0     0.4480    -0.1640  2219.8999   # DATASET 3 - Observation 122
tEA_69_1                2         31        119          7                  1.0    -0.4820    -0.3600  2220.3799   # DATASET 3 - Observation 123
tEA_82_1                2         28        122          7                  1.0     0.2540     0.0760  2232.6001   # DATASET 3 - Observation 124
tEK_62_1                2         31        120          7                  1.0     0.3680     0.3920  2218.1699   # DATASET 3 - Observation 125
tEL_87V_1               2         25        121          7                  1.0     0.4060     0.3420  2228.5801   # DATASET 3 - Observation 126
tEN_97_1                2         35        114          7                  1.0     0.2740    -0.4880  2213.9700   # DATASET 3 - Observation 127
tF_107_1                2         55        109          7                  1.0    -0.1380     0.1800  2219.1799   # DATASET 3 - Observation 128
tF_131_1                2         56        108          7                  1.0     0.2620     0.2040  2219.4500   # DATASET 3 - Observation 129
tF_242_1                2         58        108          7                  1.0    -0.1800    -0.0020  2219.5500   # DATASET 3 - Observation 130
tF_626_1                2         58        106          7                  1.0     0.3180    -0.0160  2219.3301   # DATASET 3 - Observation 131
tF_992_1                2         59        114          7                  1.0    -0.2800    -0.1360  2198.0601   # DATASET 3 - Observation 132
