# WEL package for  MODFLOW-2005, generated by Flopy.
       345         0
       305         0 # stress period 1
         2        37        47  -3.6380000E+03
         2        43        47  -3.0190000E+03
         2        41        56  -2.3650000E+03
         2        43        49  -1.0490000E+03
         2        41        52  -5.1480000E+03
         2        46        52  -2.5480000E+03
         2        45        56  -5.8780000E+03
         2        36        51  -2.4140000E+03
         2        46        55  -3.3020000E+03
         2        47        52  -3.7360000E+03
         2        46        56  -3.6740000E+03
         2        46        54  -5.3950000E+03
         2        41        55  -9.7300000E+02
         2        44        55  -1.6300000E+03
         2        42        49  -2.2500000E+03
         2        39        47  -3.1480000E+03
         2        45        58  -3.7790000E+03
         2        40        47  -4.5150000E+03
         2        40        48  -6.5590000E+03
         2        41        34  -2.2680000E+03
         2        41        48  -1.7260000E+03
         2        39        50  -1.3920000E+03
         2        39        48  -2.9690000E+03
         2        44        48  -4.5670000E+03
         2        42        47  -1.7950000E+03
         2        41        45  -2.4550000E+03
         2        43        59  -4.0130000E+03
         2        40        50  -1.1730000E+03
         2        50        60  -2.5900000E+02
         2        57        66  -1.8120000E+03
         2        69        54  -1.4760000E+03
         2        78        57  -2.1510000E+03
         2        50        58  -1.8880000E+03
         2        60        52  -3.0210000E+03
         2        61        61  -2.8480000E+03
         2        60        61  -3.9270000E+03
         2        67        61  -2.0390000E+03
         2        59        61  -6.1700000E+02
         2        72        49  -1.3760000E+03
         2        58        57  -2.7180000E+03
         2        72        52  -2.3130000E+03
         2        64        51  -3.3490000E+03
         2        70        54  -1.7370000E+03
         2        58        67  -1.5430000E+03
         2        58        69  -1.3330000E+03
         2        59        52  -1.6320000E+03
         2        70        58  -8.0700000E+02
         2        54        48  -2.7180000E+03
         2        59        51  -1.5510000E+03
         2        53        48  -4.4660000E+03
         2        71        61  -6.2060000E+03
         2        71        57  -2.8940000E+03
         2        75        52  -8.3100000E+02
         2        61        66  -2.0670000E+03
         2        53        51  -3.6130000E+03
         2        61        60  -3.0230000E+03
         2        69        62  -3.0960000E+03
         2        57        50  -1.4350000E+03
         2        73        52  -2.5840000E+03
         2        51        47  -9.4800000E+02
         2        63        66  -4.0780000E+03
         2        73        50  -3.1720000E+03
         2        75        49  -2.5670000E+03
         2        78        50  -2.1670000E+03
         2        79        46  -1.4960000E+03
         2        80        44  -4.4800000E+03
         2        80        45  -1.5350000E+03
         2        60        53  -4.2630000E+03
         2        62        52  -2.7620000E+03
         2        67        52  -4.0240000E+03
         2        75        58  -2.4440000E+03
         2        65        57  -2.1900000E+03
         2        50        48  -4.7540000E+03
         2        73        58  -4.4550000E+03
         2        51        53  -3.5490000E+03
         2        50        52  -1.7220000E+03
         2        48        51  -1.8050000E+03
         2        62        52  -3.3230000E+03
         2        63        61  -2.3720000E+03
         2        63        52  -2.2330000E+03
         2        69        61  -4.7030000E+03
         2        62        62  -4.7500000E+03
         2        56        50  -3.2210000E+03
         2        65        62  -2.0390000E+03
         2        66        61  -4.3800000E+03
         2        67        58  -3.8970000E+03
         2        63        57  -9.4800000E+02
         2        74        56  -4.1350000E+03
         2        80        54  -4.1690000E+03
         2        50        45  -1.8760000E+03
         2        69        60  -2.1540000E+03
         2        48        53  -7.6000000E+02
         2        63        59  -7.3190000E+03
         2        73        55  -1.9640000E+03
         2        78        60  -1.6610000E+03
         2        50        53  -2.0390000E+03
         2        48        54  -5.6640000E+03
         2        49        47  -2.8700000E+03
         2        50        46  -2.4830000E+03
         2        66        66  -1.1330000E+03
         2        60        65  -1.2650000E+03
         2        84        52  -3.3590000E+03
         2        50        62  -2.6520000E+03
         2        70        87  -2.7500000E+03
         2        48        51  -5.3610000E+03
         2        74        48  -5.9670000E+03
         2        67        65  -4.8330000E+03
         2        81        51  -4.3090000E+03
         2        79        61  -1.1550000E+03
         2        78        61  -5.4590000E+03
         2        80        70  -2.6130000E+03
         2        82        51  -5.9100000E+03
         2        82        50  -4.5550000E+03
         2        81        46  -3.2660000E+03
         2        79        55  -2.6890000E+03
         2        78        57  -6.7050000E+03
         2        81        56  -3.0110000E+03
         2        80        58  -5.5460000E+03
         2        77        65  -3.4860000E+03
         2        75        51  -5.1500000E+03
         2        82        55  -1.2770000E+03
         2        77        57  -6.4190000E+03
         2        75        62  -1.1150000E+03
         2        76        62  -3.2800000E+03
         2        74        61  -3.6960000E+03
         2        87        53  -4.0200000E+03
         2        70        64  -5.0440000E+03
         2        83        66  -3.6950000E+03
         2        86        62  -3.3700000E+03
         2        84        64  -1.6310000E+03
         2        85        66  -5.2360000E+03
         2        73        64  -5.7960000E+03
         2        78        62  -8.7600000E+02
         2        82        63  -1.7100000E+02
         2        83        60  -6.7540000E+03
         2        83        59  -2.4100000E+03
         2        83        57  -2.4580000E+03
         2        85        59  -2.9120000E+03
         2        86        58  -2.0370000E+03
         2        88        63  -4.2810000E+03
         2        86        63  -2.5980000E+03
         2        85        68  -1.2800000E+03
         2        84        67  -2.0710000E+03
         2        78        63  -5.4220000E+03
         2        82        67  -4.8900000E+03
         2        80        62  -2.1030000E+03
         2        82        69  -1.0285000E+04
         2        81        69  -2.5700000E+03
         2        80        70  -2.5750000E+03
         2        77        68  -5.2570000E+03
         2        81        78  -9.2670000E+03
         2        81        75  -6.7170000E+03
         2        79        77  -2.0740000E+03
         2        78        76  -8.9000000E+01
         2        84        53  -1.2580000E+03
         2        74        53  -9.8300000E+02
         2        87        55  -3.6950000E+03
         2        86        56  -3.4500000E+02
         2        85        52  -2.8260000E+03
         2        89        57  -4.5680000E+03
         2        89        57  -5.1060000E+03
         2        90        58  -1.7300000E+03
         2        89        58  -4.3400000E+03
         2        88        59  -2.7120000E+03
         2        86        61  -2.5950000E+03
         2        88        60  -1.3020000E+03
         2        89        59  -3.3980000E+03
         2        89        58  -4.4250000E+03
         2        84        54  -6.3070000E+03
         2        91        57  -2.3150000E+03
         2        88        52  -5.8200000E+02
         2       103        64  -1.0510000E+03
         2        84        57  -1.2960000E+03
         2        82        51  -1.3820000E+03
         2        84        50  -8.1600000E+02
         2        84        50  -1.2830000E+03
         2        84        50  -1.3040000E+03
         2        82        47  -4.8000000E+02
         2        82        43  -1.9190000E+03
         2        88        57  -2.9130000E+03
         2        82        44  -3.6590000E+03
         2        81        44  -1.8720000E+03
         2        83        46  -1.9730000E+03
         2        89        55  -2.2680000E+03
         2        84        50  -1.7300000E+02
         2        65        62  -3.8820000E+03
         2        89        64  -6.7000000E+02
         2        92        65  -4.2700000E+03
         2        92        66  -8.8300000E+02
         2        93        66  -1.0661000E+04
         2        94        65  -3.2700000E+03
         2        95        67  -6.7850000E+03
         2        95        69  -8.4650000E+03
         2        98        65  -6.0550000E+03
         2        97        64  -5.2300000E+02
         2        96        68  -7.8030000E+03
         2        97        65  -4.1220000E+03
         2        97        70  -2.0610000E+03
         2        98        64  -2.3900000E+03
         2        98        70  -5.7420000E+03
         2        97        76  -5.7770000E+03
         2        95        67  -4.9960000E+03
         2        89        63  -5.0790000E+03
         2        90        61  -2.4750000E+03
         2        94        83  -2.2390000E+03
         2        94        77  -1.6930000E+03
         2        95        76  -4.9960000E+03
         2        92        86  -5.7190000E+03
         2        91        85  -2.7970000E+03
         2        91        85  -2.0860000E+03
         2        91        85  -4.6100000E+03
         2        91        85  -4.8560000E+03
         2        92        84  -8.5190000E+03
         2        93        83  -1.0254000E+04
         2        92        83  -1.0714000E+04
         2        93        82  -1.6510000E+04
         2        93        81  -7.8770000E+03
         2        93        81  -8.3990000E+03
         2        93        80  -8.1700000E+03
         2        94        76  -4.1100000E+03
         2        93        76  -6.0840000E+03
         2        94        76  -9.9910000E+03
         2        95        74  -1.8320000E+03
         2        95        72  -6.6760000E+03
         2        94        83  -2.7290000E+03
         2        96        70  -6.5520000E+03
         2        96        66  -4.1220000E+03
         2        95        76  -5.1500000E+02
         2        93        63  -6.1960000E+03
         2        95        65  -2.7970000E+03
         2        89        60  -2.7970000E+03
         2        90        60  -3.2730000E+03
         2        88        61  -4.3620000E+03
         2        87        61  -5.9840000E+03
         2       100        66  -5.9500000E+02
         2        94        86  -1.5180000E+03
         2        95        88  -6.0980000E+03
         2        95        89  -2.9540000E+03
         2       106        87  -5.1170000E+03
         2       105        88  -3.8360000E+03
         2       105        88  -3.3770000E+03
         2       102        92  -1.6990000E+03
         2       101        93  -6.0220000E+03
         2       102        94  -6.9290000E+03
         2       102        95  -7.7440000E+03
         2       102        94  -5.2750000E+03
         2       101        95  -5.5940000E+03
         2       102        95  -5.2920000E+03
         2       102        96  -5.5400000E+03
         2        95        90  -4.2000000E+03
         2        94        90  -3.9520000E+03
         2        94        89  -9.5990000E+03
         2        94        89  -5.4360000E+03
         2        94        88  -5.3000000E+03
         2        93        88  -6.1270000E+03
         2        94        87  -1.1951000E+04
         2        92        87  -6.3550000E+03
         2        60        72  -2.9080000E+03
         2        77        71  -4.3300000E+02
         2        77        71  -2.3370000E+03
         2        68        68  -1.2710000E+03
         2        69        71  -3.6780000E+03
         2        70        70  -5.3910000E+03
         2        68        79  -3.1100000E+03
         2        73        69  -4.6660000E+03
         2        73        75  -1.4680000E+03
         2        74        75  -5.6050000E+03
         2        73        74  -5.0930000E+03
         2        64        84  -3.9880000E+03
         2        68        83  -7.4270000E+03
         2        65        86  -8.8960000E+03
         2        67        81  -4.2900000E+03
         2        77        62  -5.2120000E+03
         2        67        85  -3.9630000E+03
         2        67        84  -1.8990000E+03
         2        66        83  -4.9950000E+03
         2        66        84  -2.7630000E+03
         2        70        75  -2.9850000E+03
         2        68        76  -1.7470000E+03
         2        64        51  -5.3820000E+03
         2        68        66  -2.6680000E+03
         2        68        65  -1.7300000E+02
         2        69        64  -1.8140000E+03
         2        69        65  -1.4430000E+03
         2        70        65  -4.9250000E+03
         2        70        65  -1.1230000E+03
         2        74        84  -4.1640000E+03
         2        66        50  -1.7060000E+03
         2        63        50  -2.2440000E+03
         2        70        46  -2.2260000E+03
         2        63        49  -3.7110000E+03
         2        68        50  -1.3610000E+03
         2        55        44  -1.9340000E+03
         2        68        49  -2.0590000E+03
         2        69        49  -8.5300000E+02
         2        74        46  -6.0300000E+02
         2        63        50  -1.4690000E+03
         2        50        45  -6.4500000E+02
         2        78        44  -1.2270000E+03
         2        68        46  -1.0060000E+03
         2        61        50  -4.0450000E+03
         2        61        48  -1.2200000E+03
         2        62        46  -6.9000000E+02
         2        74        42  -1.6270000E+03
         2        66        35  -2.2200000E+03
       303         0 # stress period 2
         2        37        47  -2.5200000E+03
         2        43        47  -3.6180000E+03
         2        41        56  -1.8740000E+03
         2        43        49  -7.7600000E+02
         2        41        52  -4.0070000E+03
         2        46        52  -2.3480000E+03
         2        45        56  -4.7820000E+03
         2        36        51  -2.0550000E+03
         2        46        55  -2.7140000E+03
         2        47        52  -3.7280000E+03
         2        46        56  -3.6600000E+03
         2        46        54  -4.5240000E+03
         2        41        55  -9.2500000E+02
         2        44        55  -1.6270000E+03
         2        42        49  -2.4230000E+03
         2        39        47  -2.5200000E+03
         2        45        58  -3.6030000E+03
         2        40        47  -3.4900000E+03
         2        40        48  -5.1060000E+03
         2        41        34  -1.8740000E+03
         2        41        48  -1.6190000E+03
         2        39        50  -1.0990000E+03
         2        39        48  -1.8100000E+03
         2        44        48  -3.5550000E+03
         2        42        47  -2.0030000E+03
         2        41        45  -1.8100000E+03
         2        43        59  -3.6950000E+03
         2        40        50  -3.5550000E+03
         2        50        60  -6.0800000E+02
         2        57        66  -1.7090000E+03
         2        69        54  -1.3530000E+03
         2        78        57  -2.1080000E+03
         2        50        58  -1.7800000E+03
         2        60        52  -2.8480000E+03
         2        61        61  -2.8260000E+03
         2        60        61  -3.6310000E+03
         2        67        61  -1.9220000E+03
         2        59        61  -6.8400000E+02
         2        58        57  -2.5630000E+03
         2        72        52  -2.0650000E+03
         2        64        51  -2.7770000E+03
         2        70        54  -1.6370000E+03
         2        58        67  -1.0540000E+03
         2        58        69  -1.2650000E+03
         2        59        52  -1.3530000E+03
         2        70        58  -4.2900000E+02
         2        54        48  -2.5630000E+03
         2        59        51  -1.5410000E+03
         2        53        48  -3.7020000E+03
         2        71        61  -6.9620000E+03
         2        71        57  -2.8510000E+03
         2        75        52  -7.8300000E+02
         2        61        66  -2.0650000E+03
         2        53        51  -3.2750000E+03
         2        61        60  -2.7770000E+03
         2        69        62  -3.1650000E+03
         2        57        50  -1.3530000E+03
         2        73        52  -2.5920000E+03
         2        51        47  -6.4100000E+02
         2        63        66  -3.8440000E+03
         2        73        50  -2.9900000E+03
         2        76        47  -2.2070000E+03
         2        75        49  -2.4210000E+03
         2        78        50  -2.1710000E+03
         2        79        46  -1.7090000E+03
         2        80        44  -5.1480000E+03
         2        80        45  -1.5440000E+03
         2        60        53  -3.9160000E+03
         2        62        52  -3.2750000E+03
         2        67        52  -3.3460000E+03
         2        75        58  -2.3380000E+03
         2        65        57  -2.0650000E+03
         2        50        49  -3.0610000E+03
         2        50        48  -5.3250000E+03
         2        73        58  -4.2000000E+03
         2        51        53  -4.0610000E+03
         2        48        51  -2.4920000E+03
         2        49        54  -3.5600000E+03
         2        62        52  -2.8480000E+03
         2        63        61  -2.1360000E+03
         2        63        52  -1.8910000E+03
         2        69        61  -4.8760000E+03
         2        62        62  -4.5560000E+03
         2        56        50  -3.0120000E+03
         2        65        62  -1.9220000E+03
         2        66        61  -4.1290000E+03
         2        67        58  -3.7730000E+03
         2        63        57  -7.8300000E+02
         2        74        56  -4.1100000E+03
         2        80        54  -5.0280000E+03
         2        50        45  -1.8700000E+03
         2        69        60  -2.1450000E+03
         2        48        53  -1.0210000E+03
         2        63        59  -7.2670000E+03
         2        73        55  -1.8770000E+03
         2        78        60  -1.5660000E+03
         2        50        53  -1.9220000E+03
         2        48        54  -3.9870000E+03
         2        49        47  -5.4110000E+03
         2        50        46  -2.9210000E+03
         2        66        66  -1.9240000E+03
         2        60        65  -5.3200000E+02
         2        84        52  -1.0500000E+03
         2        50        62  -2.6520000E+03
         2        70        87  -2.6700000E+03
         2        48        51  -2.5630000E+03
         2        74        48  -5.0550000E+03
         2        67        65  -5.9090000E+03
         2        64        65  -4.9120000E+03
         2        81        51  -4.3670000E+03
         2        79        61  -1.2100000E+03
         2        78        61  -5.4810000E+03
         2        80        70  -2.7450000E+03
         2        82        51  -6.4220000E+03
         2        82        50  -4.4140000E+03
         2        81        46  -2.7330000E+03
         2        79        55  -2.6120000E+03
         2        78        57  -6.7180000E+03
         2        81        56  -5.3550000E+03
         2        80        58  -5.5940000E+03
         2        77        65  -3.5160000E+03
         2        75        51  -5.1950000E+03
         2        82        55  -1.2750000E+03
         2        77        57  -6.5530000E+03
         2        75        62  -1.1900000E+03
         2        76        62  -2.7450000E+03
         2        74        61  -3.9950000E+03
         2        87        53  -4.0610000E+03
         2        70        64  -4.1110000E+03
         2        83        66  -4.4410000E+03
         2        86        62  -3.9740000E+03
         2        84        64  -1.6400000E+03
         2        85        66  -5.1870000E+03
         2        73        64  -5.8920000E+03
         2        78        62  -8.9100000E+02
         2        82        63  -4.5750000E+03
         2        83        60  -7.2890000E+03
         2        83        59  -2.4170000E+03
         2        83        57  -2.4960000E+03
         2        85        59  -2.9240000E+03
         2        86        58  -1.9890000E+03
         2        88        63  -3.8100000E+03
         2        85        68  -1.3020000E+03
         2        84        67  -1.8710000E+03
         2        78        63  -3.9000000E+03
         2        82        67  -4.8900000E+03
         2        80        62  -2.1520000E+03
         2        82        69  -1.0318000E+04
         2        81        69  -3.0150000E+03
         2        80        70  -5.4630000E+03
         2        77        68  -5.3440000E+03
         2        81        78  -9.4410000E+03
         2        81        75  -7.2800000E+03
         2        79        77  -1.9740000E+03
         2        84        53  -1.1200000E+03
         2        74        53  -1.0820000E+03
         2        87        55  -3.4640000E+03
         2        86        56  -3.4300000E+02
         2        85        52  -2.7710000E+03
         2        89        57  -4.2500000E+03
         2        89        57  -5.1320000E+03
         2        90        58  -1.8720000E+03
         2        89        58  -4.3620000E+03
         2        88        59  -2.7320000E+03
         2        86        61  -2.4320000E+03
         2        88        60  -1.3700000E+03
         2        89        58  -4.4520000E+03
         2        84        54  -9.5100000E+02
         2        91        57  -2.0950000E+03
         2        88        52  -7.7500000E+02
         2       103        64  -1.0920000E+03
         2        82        51  -1.3820000E+03
         2        84        50  -7.5100000E+02
         2        84        50  -7.0700000E+02
         2        84        50  -1.3940000E+03
         2        82        47  -5.4000000E+02
         2        82        43  -2.1590000E+03
         2        88        57  -2.9730000E+03
         2        82        44  -3.7150000E+03
         2        81        44  -1.9010000E+03
         2        83        46  -2.1600000E+03
         2        89        55  -2.1330000E+03
         2        84        50  -3.9810000E+03
         2        65        62  -3.8570000E+03
         2        92        65  -4.9610000E+03
         2        92        66  -8.9800000E+02
         2        93        66  -1.0949000E+04
         2        94        65  -2.3540000E+03
         2        95        67  -6.7440000E+03
         2        95        69  -8.6050000E+03
         2        98        65  -5.9990000E+03
         2        97        64  -2.6920000E+03
         2        97        65  -4.1900000E+03
         2        97        70  -2.0950000E+03
         2        98        64  -2.3540000E+03
         2        98        70  -5.8360000E+03
         2        98        72  -1.7210000E+03
         2        97        76  -5.6090000E+03
         2        95        67  -4.9010000E+03
         2        89        63  -5.1630000E+03
         2        90        61  -2.3090000E+03
         2        94        83  -1.0520000E+03
         2        94        77  -1.7210000E+03
         2        95        76  -5.0360000E+03
         2        92        86  -5.7310000E+03
         2        91        85  -2.8430000E+03
         2        91        85  -3.2790000E+03
         2        91        85  -4.6190000E+03
         2        91        85  -4.8800000E+03
         2        92        84  -7.9750000E+03
         2        93        83  -1.0016000E+04
         2        92        83  -1.0303000E+04
         2        93        82  -1.6560000E+04
         2        93        81  -7.6870000E+03
         2        93        81  -8.1880000E+03
         2        93        80  -8.1950000E+03
         2        94        76  -4.1180000E+03
         2        93        76  -5.3870000E+03
         2        94        76  -1.0093000E+04
         2        95        74  -3.7680000E+03
         2        95        72  -6.7460000E+03
         2        94        83  -2.8230000E+03
         2        96        70  -6.8280000E+03
         2        96        69  -3.2920000E+03
         2        96        66  -4.1900000E+03
         2        95        76  -5.2400000E+02
         2        93        63  -6.1650000E+03
         2        95        65  -2.8430000E+03
         2        89        60  -2.8430000E+03
         2        90        60  -3.2640000E+03
         2        88        61  -4.1770000E+03
         2        87        61  -6.6840000E+03
         2       100        66  -7.1600000E+02
         2        94        86  -1.5580000E+03
         2        95        88  -6.0900000E+03
         2        95        89  -2.8300000E+03
         2        96        89  -4.7560000E+03
         2       106        87  -5.4250000E+03
         2       105        88  -3.9360000E+03
         2       105        88  -3.1830000E+03
         2        93        87  -3.7720000E+03
         2       102        92  -1.9020000E+03
         2       101        93  -5.2090000E+03
         2       102        94  -6.7230000E+03
         2       102        95  -7.4300000E+03
         2       102        94  -4.7560000E+03
         2       101        95  -5.7400000E+03
         2       102        95  -7.2970000E+03
         2       102        96  -5.5760000E+03
         2        95        90  -4.1320000E+03
         2        94        90  -5.4290000E+03
         2        94        89  -9.3770000E+03
         2        94        89  -5.1700000E+03
         2        94        88  -6.7550000E+03
         2        93        88  -5.8970000E+03
         2        94        87  -1.1479000E+04
         2        92        87  -6.2340000E+03
         2        60        72  -2.9380000E+03
         2        77        71  -5.2300000E+02
         2        77        71  -2.3970000E+03
         2        68        68  -1.9510000E+03
         2        69        71  -3.6330000E+03
         2        70        70  -5.5150000E+03
         2        68        79  -3.0890000E+03
         2        73        69  -4.5380000E+03
         2        73        75  -1.5340000E+03
         2        74        75  -5.8580000E+03
         2        73        74  -5.0520000E+03
         2        64        84  -4.0490000E+03
         2        68        83  -7.3820000E+03
         2        65        86  -8.9590000E+03
         2        67        81  -4.2940000E+03
         2        77        62  -4.6020000E+03
         2        67        85  -3.5600000E+03
         2        67        84  -4.6440000E+03
         2        66        83  -6.3070000E+03
         2        66        84  -3.3700000E+03
         2        70        75  -3.0210000E+03
         2        68        76  -2.2270000E+03
         2        64        51  -6.0200000E+02
         2        68        66  -2.6780000E+03
         2        68        65  -1.7300000E+02
         2        69        64  -1.8130000E+03
         2        69        65  -8.6400000E+02
         2        70        65  -4.9250000E+03
         2        74        84  -4.4560000E+03
         2        66        50  -1.7120000E+03
         2        63        50  -2.2440000E+03
         2        70        46  -2.1930000E+03
         2        63        49  -1.4510000E+03
         2        55        44  -2.0370000E+03
         2        68        49  -1.9690000E+03
         2        69        49  -9.4800000E+02
         2        74        46  -6.4400000E+02
         2        63        50  -1.4500000E+03
         2        50        45  -6.7900000E+02
         2        78        44  -7.5600000E+02
         2        68        46  -1.1140000E+03
         2        61        50  -2.9450000E+03
         2        61        48  -2.9650000E+03
         2        62        46  -3.7710000E+03
         2        74        42  -1.5250000E+03
         2        66        35  -2.8660000E+03
       323         0 # stress period 3
         2        37        47  -2.9650000E+03
         2        43        47  -3.6140000E+03
         2        41        56  -9.6800000E+02
         2        43        49  -7.8100000E+02
         2        41        52  -4.8210000E+03
         2        45        56  -5.3510000E+03
         2        36        51  -1.8320000E+03
         2        46        55  -3.2980000E+03
         2        47        52  -3.4340000E+03
         2        46        56  -3.9310000E+03
         2        46        54  -4.4860000E+03
         2        41        55  -9.2900000E+02
         2        42        55  -2.6520000E+03
         2        44        55  -1.1230000E+03
         2        42        49  -2.4990000E+03
         2        39        47  -1.3100000E+03
         2        45        58  -3.8740000E+03
         2        40        47  -4.1800000E+03
         2        40        48  -5.3030000E+03
         2        41        48  -1.6210000E+03
         2        39        50  -1.3250000E+03
         2        39        48  -1.9550000E+03
         2        44        48  -3.0080000E+03
         2        42        47  -1.1540000E+03
         2        41        45  -2.0810000E+03
         2        43        59  -2.6630000E+03