# PCG package for  MODFLOW-2005, generated by Flopy.
20 20 1 0
1e-05 1e-05 1.0 0 0 3 1.0 
