# LPF package for  MODFLOW-2005, generated by Flopy.
         0    -1E+30         0  
         0         0
         0         0
   1.000000E+00   1.000000E+00
         1         1
         0         0
INTERNAL               1 (168E15.6) -1 #hk layer 1                    
   8.498000E+00   8.498000E+00   8.498000E+00   8.498000E+00   8.498000E+00   8.498000E+00   8.498000E+00   8.498000E+00   8.498000E+00   8.498000E+00   8.498000E+00   8.498000E+00   8.498000E+00   8.498000E+00   8.498000E+00   8.498000E+00   8.498000E+00   8.498000E+00   8.498000E+00   8.498000E+00   8.498000E+00   8.498000E+00   8.498000E+00   8.498000E+00   8.498000E+00   8.498000E+00   8.498000E+00   8.498000E+00   8.498000E+00   8.498000E+00   8.498000E+00   8.498000E+00   8.498000E+00   8.498000E+00   8.498000E+00   8.498000E+00   8.498000E+00   8.498000E+00   8.498000E+00   8.498000E+00   8.498000E+00   8.498000E+00   8.498000E+00   8.498000E+00   8.498000E+00   8.498000E+00   8.498000E+00   8.498000E+00   8.498000E+00   8.498000E+00   8.498000E+00   8.498000E+00   8.498000E+00   8.498000E+00   8.498000E+00   8.498000E+00   8.498000E+00   8.498000E+00   8.498000E+00   8.498000E+00   8.498000E+00   8.498000E+00   8.498000E+00   8.498000E+00   8.498000E+00   8.498000E+00   8.498000E+00   8.498000E+00   8.498000E+00   8.498000E+00   8.498000E+00   8.498000E+00   8.498000E+00   8.498000E+00   8.498000E+00   8.498000E+00   8.498000E+00   8.498000E+00   8.498000E+00   8.498000E+00   8.498000E+00   8.498000E+00   8.498000E+00   8.498000E+00   8.498000E+00   8.498000E+00   8.498000E+00   8.498000E+00   8.498000E+00   8.498000E+00   8.498000E+00   8.498000E+00   8.498000E+00   8.498000E+00   8.498000E+00   8.498000E+00   8.498000E+00   8.498000E+00   8.498000E+00   8.498000E+00   8.498000E+00   8.498000E+00   8.498000E+00   8.498000E+00   8.498000E+00   8.498000E+00   8.498000E+00   8.498000E+00   8.498000E+00   8.498000E+00   8.498000E+00   8.498000E+00   8.498000E+00   8.498000E+00   8.498000E+00   8.498000E+00   8.498000E+00   8.498000E+00   8.498000E+00   8.498000E+00   8.498000E+00   8.498000E+00   8.498000E+00   8.498000E+00   8.498000E+00   8.498000E+00   8.498000E+00   8.498000E+00   8.498000E+00   8.498000E+00   8.498000E+00   8.498000E+00   8.498000E+00   8.498000E+00   8.498000E+00   8.498000E+00   8.498000E+00   8.498000E+00   8.498000E+00   8.498000E+00   8.498000E+00   8.498000E+00   8.498000E+00   8.498000E+00   8.498000E+00   8.498000E+00   8.498000E+00   8.498000E+00   8.498000E+00   8.498000E+00   8.498000E+00   8.498000E+00   8.498000E+00   8.498000E+00   8.498000E+00   8.498000E+00   8.498000E+00   8.498000E+00   8.498000E+00   8.498000E+00   8.498000E+00   8.498000E+00   8.498000E+00   8.498000E+00   8.498000E+00   8.498000E+00   8.498000E+00   8.498000E+00
   8.498000E+00   8.498000E+00   8.498000E+00   8.498000E+00   8.498000E+00   8.498000E+00   8.498000E+00   8.498000E+00   8.498000E+00   8.498000E+00   8.498000E+00   8.498000E+00   8.498000E+00   8.498000E+00   8.498000E+00   8.498000E+00   8.498000E+00   8.498000E+00   8.498000E+00   8.498000E+00   8.498000E+00   8.498000E+00   8.498000E+00   8.498000E+00   8.498000E+00   8.498000E+00   8.498000E+00   8.498000E+00   8.498000E+00   8.498000E+00   8.498000E+00   8.498000E+00   8.498000E+00   8.498000E+00   8.498000E+00   8.498000E+00   8.498000E+00   8.498000E+00   8.498000E+00   8.498000E+00   8.498000E+00   8.498000E+00   8.498000E+00   8.498000E+00   8.498000E+00   8.498000E+00   8.498000E+00   8.498000E+00   8.498000E+00   8.498000E+00   8.498000E+00   8.498000E+00   8.498000E+00   8.498000E+00   8.498000E+00   8.498000E+00   8.498000E+00   8.498000E+00   8.498000E+00   8.498000E+00   8.498000E+00   8.498000E+00   8.498000E+00   8.498000E+00   8.498000E+00   8.498000E+00   8.498000E+00   8.498000E+00   8.498000E+00   8.498000E+00   8.498000E+00   8.498000E+00   8.498000E+00   8.498000E+00   8.498000E+00   8.498000E+00   8.498000E+00   8.498000E+00   8.498000E+00   8.498000E+00   8.498000E+00   8.498000E+00   8.498000E+00   8.498000E+00   8.498000E+00   8.498000E+00   8.498000E+00   8.498000E+00   8.498000E+00   8.498000E+00   8.498000E+00   8.498000E+00   8.498000E+00   8.498000E+00   8.498000E+00   8.498000E+00   8.498000E+00   8.498000E+00   8.498000E+00   8.498000E+00   8.498000E+00   8.498000E+00   8.498000E+00   8.498000E+00   8.498000E+00   8.498000E+00   8.498000E+00   8.498000E+00   8.498000E+00   8.498000E+00   8.498000E+00   8.498000E+00   8.498000E+00   8.498000E+00   8.498000E+00   8.498000E+00   8.498000E+00   8.498000E+00   8.498000E+00   8.498000E+00   8.498000E+00   8.498000E+00   8.498000E+00   8.498000E+00   8.498000E+00   8.498000E+00   8.498000E+00   8.498000E+00   8.498000E+00   8.498000E+00   8.498000E+00   8.498000E+00   8.498000E+00   8.498000E+00   8.498000E+00   8.498000E+00   8.498000E+00   8.498000E+00   8.498000E+00   8.498000E+00   8.498000E+00   8.498000E+00   8.498000E+00   8.498000E+00   8.498000E+00   8.498000E+00   8.498000E+00   8.498000E+00   8.498000E+00   8.498000E+00   8.498000E+00   8.498000E+00   8.498000E+00   8.498000E+00   8.498000E+00   8.498000E+00   8.498000E+00   8.498000E+00   8.498000E+00   8.498000E+00   8.498000E+00   8.498000E+00   8.498000E+00   8.498000E+00   8.498000E+00   8.498000E+00   8.498000E+00   8.498000E+00
   8.498000E+00   8.498000E+00   8.498000E+00   8.498000E+00   8.498000E+00   8.498000E+00   8.498000E+00   8.498000E+00   8.498000E+00   8.498000E+00   8.498000E+00   8.498000E+00   8.498000E+00   8.498000E+00   8.498000E+00   8.498000E+00   8.498000E+00   8.498000E+00   8.498000E+00   8.498000E+00   8.498000E+00   8.498000E+00   8.498000E+00   8.498000E+00   8.498000E+00   8.498000E+00   8.498000E+00   8.498000E+00   8.498000E+00   8.498000E+00   8.498000E+00   8.498000E+00   8.498000E+00   8.498000E+00   8.498000E+00   8.498000E+00   8.498000E+00   8.498000E+00   8.498000E+00   8.498000E+00   8.498000E+00   8.498000E+00   8.498000E+00   8.498000E+00   8.498000E+00   8.498000E+00   8.498000E+00   8.498000E+00   8.498000E+00   8.498000E+00   8.498000E+00   8.498000E+00   8.498000E+00   8.498000E+00   8.498000E+00   8.498000E+00   8.498000E+00   8.498000E+00   8.498000E+00   8.498000E+00   8.498000E+00   8.498000E+00   8.498000E+00   8.498000E+00   8.498000E+00   8.498000E+00   8.498000E+00   8.498000E+00   8.498000E+00   8.498000E+00   8.498000E+00   8.498000E+00   8.498000E+00   8.498000E+00   8.498000E+00   8.498000E+00   8.498000E+00   8.498000E+00   8.498000E+00   8.498000E+00   8.498000E+00   8.498000E+00   8.498000E+00   8.498000E+00   8.498000E+00   8.498000E+00   8.498000E+00   8.498000E+00   8.498000E+00   8.498000E+00   8.498000E+00   8.498000E+00   8.498000E+00   8.498000E+00   8.498000E+00   8.498000E+00   8.498000E+00   8.498000E+00   8.498000E+00   8.498000E+00   8.498000E+00   8.498000E+00   8.498000E+00   8.498000E+00   8.498000E+00   8.498000E+00   8.498000E+00   8.498000E+00   8.498000E+00   8.498000E+00   8.498000E+00   8.498000E+00   8.498000E+00   8.498000E+00   8.498000E+00   8.498000E+00   8.498000E+00   8.498000E+00   8.498000E+00   8.498000E+00   8.498000E+00   8.498000E+00   8.498000E+00   8.498000E+00   8.498000E+00   8.498000E+00   8.498000E+00   8.498000E+00   8.498000E+00   8.498000E+00   8.498000E+00   8.498000E+00   8.498000E+00   8.498000E+00   8.498000E+00   8.498000E+00   8.498000E+00   8.498000E+00   8.498000E+00   8.498000E+00   8.498000E+00   8.498000E+00   8.498000E+00   8.498000E+00   8.498000E+00   8.498000E+00   8.498000E+00   8.498000E+00   8.498000E+00   8.498000E+00   8.498000E+00   8.498000E+00   8.498000E+00   8.498000E+00   8.498000E+00   8.498000E+00   8.498000E+00   8.498000E+00   8.498000E+00   8.498000E+00   8.498000E+00   8.498000E+00   8.498000E+00   8.498000E+00   8.498000E+00   8.498000E+00   8.498000E+00   8.498000E+00
   8.498000E+00   8.498000E+00   8.498000E+00   8.498000E+00   8.498000E+00   8.498000E+00   8.498000E+00   8.498000E+00   8.498000E+00   8.498000E+00   8.498000E+00   8.498000E+00   8.498000E+00   8.498000E+00   8.498000E+00   8.498000E+00   8.498000E+00   8.498000E+00   8.498000E+00   8.498000E+00   8.498000E+00   8.498000E+00   8.498000E+00   8.498000E+00   8.498000E+00   8.498000E+00   8.498000E+00   8.498000E+00   8.498000E+00   8.498000E+00   8.498000E+00   8.498000E+00   8.498000E+00   8.498000E+00   8.498000E+00   8.498000E+00   8.498000E+00   8.498000E+00   8.498000E+00   8.498000E+00   8.498000E+00   8.498000E+00   8.498000E+00   8.498000E+00   8.498000E+00   8.498000E+00   8.498000E+00   8.498000E+00   8.498000E+00   8.498000E+00   8.498000E+00   8.498000E+00   8.498000E+00   8.498000E+00   8.498000E+00   8.498000E+00   8.498000E+00   8.498000E+00   8.498000E+00   8.498000E+00   8.498000E+00   8.498000E+00   8.498000E+00   8.498000E+00   8.498000E+00   8.498000E+00   8.498000E+00   8.498000E+00   8.498000E+00   8.498000E+00   8.498000E+00   8.498000E+00   8.498000E+00   8.498000E+00   8.498000E+00   8.498000E+00   8.498000E+00   8.498000E+00   8.498000E+00   8.498000E+00   8.498000E+00   8.498000E+00   8.498000E+00   8.498000E+00   8.498000E+00   8.498000E+00   8.498000E+00   8.498000E+00   8.498000E+00   8.498000E+00   8.498000E+00   8.498000E+00   8.498000E+00   8.498000E+00   8.498000E+00   8.498000E+00   8.498000E+00   8.498000E+00   8.498000E+00   8.498000E+00   8.498000E+00   8.498000E+00   8.498000E+00   8.498000E+00   8.498000E+00   8.498000E+00   8.498000E+00   8.498000E+00   8.498000E+00   8.498000E+00   8.498000E+00   8.498000E+00   8.498000E+00   8.498000E+00   8.498000E+00   8.498000E+00   8.498000E+00   8.498000E+00   8.498000E+00   8.498000E+00   8.498000E+00   8.498000E+00   8.498000E+00   8.498000E+00   8.498000E+00   8.498000E+00   8.498000E+00   8.498000E+00   8.498000E+00   8.498000E+00   8.498000E+00   8.498000E+00   8.498000E+00   8.498000E+00   8.498000E+00   8.498000E+00   8.498000E+00   8.498000E+00   8.498000E+00   8.498000E+00   8.498000E+00   8.498000E+00   8.498000E+00   8.498000E+00   8.498000E+00   8.498000E+00   8.498000E+00   8.498000E+00   8.498000E+00   8.498000E+00   8.498000E+00   8.498000E+00   8.498000E+00   8.498000E+00   8.498000E+00   8.498000E+00   8.498000E+00   8.498000E+00   8.498000E+00   8.498000E+00   8.498000E+00   8.498000E+00   8.498000E+00   8.498000E+00   8.498000E+00   8.498000E+00   8.498000E+00   8.498000E+00
   8.498000E+00   8.498000E+00   8.498000E+00   8.498000E+00   8.498000E+00   8.498000E+00   8.498000E+00   8.498000E+00   8.498000E+00   8.498000E+00   8.498000E+00   8.498000E+00   8.498000E+00   8.498000E+00   8.498000E+00   8.498000E+00   8.498000E+00   8.498000E+00   8.498000E+00   8.498000E+00   8.498000E+00   8.498000E+00   8.498000E+00   8.498000E+00   8.498000E+00   8.498000E+00   8.498000E+00   8.498000E+00   8.498000E+00   8.498000E+00   8.498000E+00   8.498000E+00   8.498000E+00   8.498000E+00   8.498000E+00   8.498000E+00   8.498000E+00   8.498000E+00   8.498000E+00   8.498000E+00   8.498000E+00   8.498000E+00   8.498000E+00   8.498000E+00   8.498000E+00   8.498000E+00   8.498000E+00   8.498000E+00   8.498000E+00   8.498000E+00   8.498000E+00   8.498000E+00   8.498000E+00   8.498000E+00   8.498000E+00   8.498000E+00   8.498000E+00   8.498000E+00   8.498000E+00   8.498000E+00   8.498000E+00   8.498000E+00   8.498000E+00   8.498000E+00   8.498000E+00   8.498000E+00   8.498000E+00   8.498000E+00   8.498000E+00   8.498000E+00   8.498000E+00   8.498000E+00   8.498000E+00   8.498000E+00   8.498000E+00   8.498000E+00   8.498000E+00   8.498000E+00   8.498000E+00   8.498000E+00   8.498000E+00   8.498000E+00   8.498000E+00   8.498000E+00   8.498000E+00   8.498000E+00   8.498000E+00   8.498000E+00   8.498000E+00   8.498000E+00   8.498000E+00   8.498000E+00   8.498000E+00   8.498000E+00   8.498000E+00   8.498000E+00   8.498000E+00   8.498000E+00   8.498000E+00   8.498000E+00   8.498000E+00   8.498000E+00   8.498000E+00   8.498000E+00   8.498000E+00   8.498000E+00   8.498000E+00   8.498000E+00   8.498000E+00   8.498000E+00   8.498000E+00   8.498000E+00   8.498000E+00   8.498000E+00   8.498000E+00   8.498000E+00   8.498000E+00   8.498000E+00   8.498000E+00   8.498000E+00   8.498000E+00   8.498000E+00   8.498000E+00   8.498000E+00   8.498000E+00   8.498000E+00   8.498000E+00   8.498000E+00   8.498000E+00   8.498000E+00   8.498000E+00   8.498000E+00   8.498000E+00   8.498000E+00   8.498000E+00   8.498000E+00   8.498000E+00   8.498000E+00   8.498000E+00   8.498000E+00   8.498000E+00   8.498000E+00   8.498000E+00   8.498000E+00   8.498000E+00   8.498000E+00   8.498000E+00   8.498000E+00   8.498000E+00   8.498000E+00   8.498000E+00   8.498000E+00   8.498000E+00   8.498000E+00   8.498000E+00   8.498000E+00   8.498000E+00   8.498000E+00   8.498000E+00   8.498000E+00   8.498000E+00   8.498000E+00   8.498000E+00   8.498000E+00   8.498000E+00   8.498000E+00   8.498000E+00   8.498000E+00
   8.498000E+00   8.498000E+00   8.498000E+00   8.498000E+00   8.498000E+00   8.498000E+00   8.498000E+00   8.498000E+00   8.498000E+00   8.498000E+00   8.498000E+00   8.498000E+00   8.498000E+00   8.498000E+00   8.498000E+00   8.498000E+00   8.498000E+00   8.498000E+00   8.498000E+00   8.498000E+00   8.498000E+00   8.498000E+00   8.498000E+00   8.498000E+00   8.498000E+00   8.498000E+00   8.498000E+00   8.498000E+00   8.498000E+00   8.498000E+00   8.498000E+00   8.498000E+00   8.498000E+00   8.498000E+00   8.498000E+00   8.498000E+00   8.498000E+00   8.498000E+00   8.498000E+00   8.498000E+00   8.498000E+00   8.498000E+00   8.498000E+00   8.498000E+00   8.498000E+00   8.498000E+00   8.498000E+00   8.498000E+00   8.498000E+00   8.498000E+00   8.498000E+00   8.498000E+00   8.498000E+00   8.498000E+00   8.498000E+00   8.498000E+00   8.498000E+00   8.498000E+00   8.498000E+00   8.498000E+00   8.498000E+00   8.498000E+00   8.498000E+00   8.498000E+00   8.498000E+00   8.498000E+00   8.498000E+00   8.498000E+00   8.498000E+00   8.498000E+00   8.498000E+00   8.498000E+00   8.498000E+00   8.498000E+00   8.498000E+00   8.498000E+00   8.498000E+00   8.498000E+00   8.498000E+00   8.498000E+00   8.498000E+00   8.498000E+00   8.498000E+00   8.498000E+00   8.498000E+00   8.498000E+00   8.498000E+00   8.498000E+00   8.498000E+00   8.498000E+00   8.498000E+00   8.498000E+00   8.498000E+00   8.498000E+00   8.498000E+00   8.498000E+00   8.498000E+00   8.498000E+00   8.498000E+00   8.498000E+00   8.498000E+00   8.498000E+00   8.498000E+00   8.498000E+00   8.498000E+00   8.498000E+00   8.498000E+00   8.498000E+00   8.498000E+00   8.498000E+00   8.498000E+00   8.498000E+00   8.498000E+00   8.498000E+00   8.498000E+00   8.498000E+00   8.498000E+00   8.498000E+00   8.498000E+00   8.498000E+00   8.498000E+00   8.498000E+00   8.498000E+00   8.498000E+00   8.498000E+00   8.498000E+00   8.498000E+00   8.498000E+00   8.498000E+00   8.498000E+00   8.498000E+00   8.498000E+00   8.498000E+00   8.498000E+00   8.498000E+00   8.498000E+00   8.498000E+00   8.498000E+00   8.498000E+00   8.498000E+00   8.498000E+00   8.498000E+00   8.498000E+00   8.498000E+00   8.498000E+00   8.498000E+00   8.498000E+00   8.498000E+00   8.498000E+00   8.498000E+00   8.498000E+00   8.498000E+00   8.498000E+00   8.498000E+00   8.498000E+00   8.498000E+00   8.498000E+00   8.498000E+00   8.498000E+00   8.498000E+00   8.498000E+00   8.498000E+00   8.498000E+00   8.498000E+00   8.498000E+00   8.498000E+00   8.498000E+00   8.498000E+00
   8.498000E+00   8.498000E+00   8.498000E+00   8.498000E+00   8.498000E+00   8.498000E+00   8.498000E+00   8.498000E+00   8.498000E+00   8.498000E+00   8.498000E+00   8.498000E+00   8.498000E+00   8.498000E+00   8.498000E+00   8.498000E+00   8.498000E+00   8.498000E+00   8.498000E+00   8.498000E+00   8.498000E+00   8.498000E+00   8.498000E+00   8.498000E+00   8.498000E+00   8.498000E+00   8.498000E+00   8.498000E+00   8.498000E+00   8.498000E+00   8.498000E+00   8.498000E+00   8.498000E+00   8.498000E+00   8.498000E+00   8.498000E+00   8.498000E+00   8.498000E+00   8.498000E+00   8.498000E+00   8.498000E+00   8.498000E+00   8.498000E+00   8.498000E+00   8.498000E+00   8.498000E+00   8.498000E+00   8.498000E+00   8.498000E+00   8.498000E+00   8.498000E+00   8.498000E+00   8.498000E+00   8.498000E+00   8.498000E+00   8.498000E+00   8.498000E+00   8.498000E+00   8.498000E+00   8.498000E+00   8.498000E+00   8.498000E+00   8.498000E+00   8.498000E+00   8.498000E+00   8.498000E+00   8.498000E+00   8.498000E+00   8.498000E+00   8.498000E+00   8.498000E+00   8.498000E+00   8.498000E+00   8.498000E+00   8.498000E+00   8.498000E+00   8.498000E+00   8.498000E+00   8.498000E+00   8.498000E+00   8.498000E+00   8.498000E+00   8.498000E+00   8.498000E+00   8.498000E+00   8.498000E+00   8.498000E+00   8.498000E+00   8.498000E+00   8.498000E+00   8.498000E+00   8.498000E+00   8.498000E+00   8.498000E+00   8.498000E+00   8.498000E+00   8.498000E+00   8.498000E+00   8.498000E+00   8.498000E+00   8.498000E+00   8.498000E+00   8.498000E+00   8.498000E+00   8.498000E+00   8.498000E+00   8.498000E+00   8.498000E+00   8.498000E+00   8.498000E+00   8.498000E+00   8.498000E+00   8.498000E+00   8.498000E+00   8.498000E+00   8.498000E+00   8.498000E+00   8.498000E+00   8.498000E+00   8.498000E+00   8.498000E+00   8.498000E+00   8.498000E+00   8.498000E+00   8.498000E+00   8.498000E+00   8.498000E+00   8.498000E+00   8.498000E+00   8.498000E+00   8.498000E+00   8.498000E+00   8.498000E+00   8.498000E+00   8.498000E+00   8.498000E+00   8.498000E+00   8.498000E+00   8.498000E+00   8.498000E+00   8.498000E+00   8.498000E+00   8.498000E+00   8.498000E+00   8.498000E+00   8.498000E+00   8.498000E+00   8.498000E+00   8.498000E+00   8.498000E+00   8.498000E+00   8.498000E+00   8.498000E+00   8.498000E+00   8.498000E+00   8.498000E+00   8.498000E+00   8.498000E+00   8.498000E+00   8.498000E+00   8.498000E+00   8.498000E+00   8.498000E+00   8.498000E+00   8.498000E+00   8.498000E+00   8.498000E+00   8.498000E+00
   8.498000E+00   8.498000E+00   8.498000E+00   8.498000E+00   8.498000E+00   8.498000E+00   8.498000E+00   8.498000E+00   8.498000E+00   8.498000E+00   8.498000E+00   8.498000E+00   8.498000E+00   8.498000E+00   8.498000E+00   8.498000E+00   8.498000E+00   8.498000E+00   8.498000E+00   8.498000E+00   8.498000E+00   8.498000E+00   8.498000E+00   8.498000E+00   8.498000E+00   8.498000E+00   8.498000E+00   8.498000E+00   8.498000E+00   8.498000E+00   8.498000E+00   8.498000E+00   8.498000E+00   8.498000E+00   8.498000E+00   8.498000E+00   8.498000E+00   8.498000E+00   8.498000E+00   8.498000E+00   8.498000E+00   8.498000E+00   8.498000E+00   8.498000E+00   8.498000E+00   8.498000E+00   8.498000E+00   8.498000E+00   8.498000E+00   8.498000E+00   8.498000E+00   8.498000E+00   8.498000E+00   8.498000E+00   8.498000E+00   8.498000E+00   8.498000E+00   8.498000E+00   8.498000E+00   8.498000E+00   8.498000E+00   8.498000E+00   8.498000E+00   8.498000E+00   8.498000E+00   8.498000E+00   8.498000E+00   8.498000E+00   8.498000E+00   8.498000E+00   8.498000E+00   8.498000E+00   8.498000E+00   8.498000E+00   8.498000E+00   8.498000E+00   8.498000E+00   8.498000E+00   8.498000E+00   8.498000E+00   8.498000E+00   8.498000E+00   8.498000E+00   8.498000E+00   8.498000E+00   8.498000E+00   8.498000E+00   8.498000E+00   8.498000E+00   8.498000E+00   8.498000E+00   8.498000E+00   8.498000E+00   8.498000E+00   8.498000E+00   8.498000E+00   8.498000E+00   8.498000E+00   8.498000E+00   8.498000E+00   8.498000E+00   8.498000E+00   8.498000E+00   8.498000E+00   8.498000E+00   8.498000E+00   8.498000E+00   8.498000E+00   8.498000E+00   8.498000E+00   8.498000E+00   8.498000E+00   8.498000E+00   8.498000E+00   8.498000E+00   8.498000E+00   8.498000E+00   8.498000E+00   8.498000E+00   8.498000E+00   8.498000E+00   8.498000E+00   8.498000E+00   8.498000E+00   8.498000E+00   8.498000E+00   8.498000E+00   8.498000E+00   8.498000E+00   8.498000E+00   8.498000E+00   8.498000E+00   8.498000E+00   8.498000E+00   8.498000E+00   8.498000E+00   8.498000E+00   8.498000E+00   8.498000E+00   8.498000E+00   8.498000E+00   8.498000E+00   8.498000E+00   8.498000E+00   8.498000E+00   8.498000E+00   8.498000E+00   8.498000E+00   8.498000E+00   8.498000E+00   8.498000E+00   8.498000E+00   8.498000E+00   8.498000E+00   8.498000E+00   8.498000E+00   8.498000E+00   8.498000E+00   8.498000E+00   8.498000E+00   8.498000E+00   8.498000E+00   8.498000E+00   8.498000E+00   8.498000E+00   8.498000E+00   8.498000E+00   8.498000E+00
   8.498000E+00   8.498000E+00   8.498000E+00   8.498000E+00   8.498000E+00   8.498000E+00   8.498000E+00   8.498000E+00   8.498000E+00   8.498000E+00   8.498000E+00   8.498000E+00   8.498000E+00   8.498000E+00   8.498000E+00   8.498000E+00   8.498000E+00   8.498000E+00   8.498000E+00   8.498000E+00   8.498000E+00   8.498000E+00   8.498000E+00   8.498000E+00   8.498000E+00   8.498000E+00   8.498000E+00   8.498000E+00   8.498000E+00   8.498000E+00   8.498000E+00   8.498000E+00   8.498000E+00   8.498000E+00   8.498000E+00   8.498000E+00   8.498000E+00   8.498000E+00   8.498000E+00   8.498000E+00   8.498000E+00   8.498000E+00   8.498000E+00   8.498000E+00   8.498000E+00   8.498000E+00   8.498000E+00   8.498000E+00   8.498000E+00   8.498000E+00   8.498000E+00   8.498000E+00   8.498000E+00   8.498000E+00   8.498000E+00   8.498000E+00   8.498000E+00   8.498000E+00   8.498000E+00   8.498000E+00   8.498000E+00   8.498000E+00   8.498000E+00   8.498000E+00   8.498000E+00   8.498000E+00   8.498000E+00   8.498000E+00   8.498000E+00   8.498000E+00   8.498000E+00   8.498000E+00   8.498000E+00   8.498000E+00   8.498000E+00   8.498000E+00   8.498000E+00   8.498000E+00   8.498000E+00   8.498000E+00   8.498000E+00   8.498000E+00   8.498000E+00   8.498000E+00   8.498000E+00   8.498000E+00   8.498000E+00   8.498000E+00   8.498000E+00   8.498000E+00   8.498000E+00   8.498000E+00   8.498000E+00   8.498000E+00   8.498000E+00   8.498000E+00   8.498000E+00   8.498000E+00   8.498000E+00   8.498000E+00   8.498000E+00   8.498000E+00   8.498000E+00   8.498000E+00   8.498000E+00   8.498000E+00   8.498000E+00   8.498000E+00   8.498000E+00   8.498000E+00   8.498000E+00   8.498000E+00   8.498000E+00   8.498000E+00   8.498000E+00   8.498000E+00   8.498000E+00   8.498000E+00   8.498000E+00   8.498000E+00   8.498000E+00   8.498000E+00   8.498000E+00   8.498000E+00   8.498000E+00   8.498000E+00   8.498000E+00   8.498000E+00   8.498000E+00   8.498000E+00   8.498000E+00   8.498000E+00   8.498000E+00   8.498000E+00   8.498000E+00   8.498000E+00   8.498000E+00   8.498000E+00   8.498000E+00   8.498000E+00   8.498000E+00   8.498000E+00   8.498000E+00   8.498000E+00   8.498000E+00   8.498000E+00   8.498000E+00   8.498000E+00   8.498000E+00   8.498000E+00   8.498000E+00   8.498000E+00   8.498000E+00   8.498000E+00   8.498000E+00   8.498000E+00   8.498000E+00   8.498000E+00   8.498000E+00   8.498000E+00   8.498000E+00   8.498000E+00   8.498000E+00   8.498000E+00   8.498000E+00   8.498000E+00   8.498000E+00   8.498000E+00
   8.498000E+00   8.498000E+00   8.498000E+00   8.498000E+00   8.498000E+00   8.498000E+00   8.498000E+00   8.498000E+00   8.498000E+00   8.498000E+00   8.498000E+00   8.498000E+00   8.498000E+00   8.498000E+00   8.498000E+00   8.498000E+00   8.498000E+00   8.498000E+00   8.498000E+00   8.498000E+00   8.498000E+00   8.498000E+00   8.498000E+00   8.498000E+00   8.498000E+00   8.498000E+00   8.498000E+00   8.498000E+00   8.498000E+00   8.498000E+00   8.498000E+00   8.498000E+00   8.498000E+00   8.498000E+00   8.498000E+00   8.498000E+00   8.498000E+00   8.498000E+00   8.498000E+00   8.498000E+00   8.498000E+00   8.498000E+00   8.498000E+00   8.498000E+00   8.498000E+00   8.498000E+00   8.498000E+00   8.498000E+00   8.498000E+00   8.498000E+00   8.498000E+00   8.498000E+00   8.498000E+00   8.498000E+00   8.498000E+00   8.498000E+00   8.498000E+00   8.498000E+00   8.498000E+00   8.498000E+00   8.498000E+00   8.498000E+00   8.498000E+00   8.498000E+00   8.498000E+00   8.498000E+00   8.498000E+00   8.498000E+00   8.498000E+00   8.498000E+00   8.498000E+00   8.498000E+00   8.498000E+00   8.498000E+00   8.498000E+00   8.498000E+00   8.498000E+00   8.498000E+00   8.498000E+00   8.498000E+00   8.498000E+00   8.498000E+00   8.498000E+00   8.498000E+00   8.498000E+00   8.498000E+00   8.498000E+00   8.498000E+00   8.498000E+00   8.498000E+00   8.498000E+00   8.498000E+00   8.498000E+00   8.498000E+00   8.498000E+00   8.498000E+00   8.498000E+00   8.498000E+00   8.498000E+00   8.498000E+00   8.498000E+00   8.498000E+00   8.498000E+00   8.498000E+00   8.498000E+00   8.498000E+00   8.498000E+00   8.498000E+00   8.498000E+00   8.498000E+00   8.498000E+00   8.498000E+00   8.498000E+00   8.498000E+00   8.498000E+00   8.498000E+00   8.498000E+00   8.498000E+00   8.498000E+00   8.498000E+00   8.498000E+00   8.498000E+00   8.498000E+00   8.498000E+00   8.498000E+00   8.498000E+00   8.498000E+00   8.498000E+00   8.498000E+00   8.498000E+00   8.498000E+00   8.498000E+00   8.498000E+00   8.498000E+00   8.498000E+00   8.498000E+00   8.498000E+00   8.498000E+00   8.498000E+00   8.498000E+00   8.498000E+00   8.498000E+00   8.498000E+00   8.498000E+00   8.498000E+00   8.498000E+00   8.498000E+00   8.498000E+00   8.498000E+00   8.498000E+00   8.498000E+00   8.498000E+00   8.498000E+00   8.498000E+00   8.498000E+00   8.498000E+00   8.498000E+00   8.498000E+00   8.498000E+00   8.498000E+00   8.498000E+00   8.498000E+00   8.498000E+00   8.498000E+00   8.498000E+00   8.498000E+00   8.498000E+00   8.498000E+00
   8.498000E+00   8.498000E+00   8.498000E+00   8.498000E+00   8.498000E+00   8.498000E+00   8.498000E+00   8.498000E+00   8.498000E+00   8.498000E+00   8.498000E+00   8.498000E+00   8.498000E+00   8.498000E+00   8.498000E+00   8.498000E+00   8.498000E+00   8.498000E+00   8.498000E+00   8.498000E+00   8.498000E+00   8.498000E+00   8.498000E+00   8.498000E+00   8.498000E+00   8.498000E+00   8.498000E+00   8.498000E+00   8.498000E+00   8.498000E+00   8.498000E+00   8.498000E+00   8.498000E+00   8.498000E+00   8.498000E+00   8.498000E+00   8.498000E+00   8.498000E+00   8.498000E+00   8.498000E+00   8.498000E+00   8.498000E+00   8.498000E+00   8.498000E+00   8.498000E+00   8.498000E+00   8.498000E+00   8.498000E+00   8.498000E+00   8.498000E+00   8.498000E+00   8.498000E+00   8.498000E+00   8.498000E+00   8.498000E+00   8.498000E+00   8.498000E+00   8.498000E+00   8.498000E+00   8.498000E+00   8.498000E+00   8.498000E+00   8.498000E+00   8.498000E+00   8.498000E+00   8.498000E+00   8.498000E+00   8.498000E+00   8.498000E+00   8.498000E+00   8.498000E+00   8.498000E+00   8.498000E+00   8.498000E+00   8.498000E+00   8.498000E+00   8.498000E+00   8.498000E+00   8.498000E+00   8.498000E+00   8.498000E+00   8.498000E+00   8.498000E+00   8.498000E+00   8.498000E+00   8.498000E+00   8.498000E+00   8.498000E+00   8.498000E+00   8.498000E+00   8.498000E+00   8.498000E+00   8.498000E+00   8.498000E+00   8.498000E+00   8.498000E+00   8.498000E+00   8.498000E+00   8.498000E+00   8.498000E+00   8.498000E+00   8.498000E+00   8.498000E+00   8.498000E+00   8.498000E+00   8.498000E+00   8.498000E+00   8.498000E+00   8.498000E+00   8.498000E+00   8.498000E+00   8.498000E+00   8.498000E+00   8.498000E+00   8.498000E+00   8.498000E+00   8.498000E+00   8.498000E+00   8.498000E+00   8.498000E+00   8.498000E+00   8.498000E+00   8.498000E+00   8.498000E+00   8.498000E+00   8.498000E+00   8.498000E+00   8.498000E+00   8.498000E+00   8.498000E+00   8.498000E+00   8.498000E+00   8.498000E+00   8.498000E+00   8.498000E+00   8.498000E+00   8.498000E+00   8.498000E+00   8.498000E+00   8.498000E+00   8.498000E+00   8.498000E+00   8.498000E+00   8.498000E+00   8.498000E+00   8.498000E+00   8.498000E+00   8.498000E+00   8.498000E+00   8.498000E+00   8.498000E+00   8.498000E+00   8.498000E+00   8.498000E+00   8.498000E+00   8.498000E+00   8.498000E+00   8.498000E+00   8.498000E+00   8.498000E+00   8.498000E+00   8.498000E+00   8.498000E+00   8.498000E+00   8.498000E+00   8.498000E+00   8.498000E+00   8.498000E+00